!parameter inputs via namelist convention.
!(1) Use ' ' (single quotes) for chars;
!(2) integer values are fine for real vars/arrays;
!(3) if multiple entries for a parameter are found, the last one wins - please avoid this
!(4) array inputs follow column major (like FORTRAN) and can spill to multiple lines. 
!    Values can be separated by commas or spaces.
!(5) space allowed before/after '='

&CORE
!+++++++++++++++++++++++++++++++++++++++++++++++++++++++++++++++++++++++
! Core (mandatory) parameters; no defaults
!+++++++++++++++++++++++++++++++++++++++++++++++++++++++++++++++++++++++
! Pre-processing option. Useful for checking grid errors etc. Need to use 1 
! core only for compute (plus necessary scribe cores). Under scribe I/O, the 
! code (the scribe part) will hang but the outputs will be there. Just kill 
! the job.
  ipre = 0 !Pre-processor flag (1: on; 0: off)

! Baroclinic/barotropic option. If ibc=0 (baroclinic model), ibtp is not used.
  ibc = 0 !Baroclinic option
  ibtp = 1 

  rnday = 30 !total run time in days
  dt = 100. !Time step in sec

! Grid for WWM (USE_WWM)
  msc2 = 24     !same as msc in .nml ... for consitency check between SCHISM and WWM
  mdc2 = 30     !same as mdc in .nml

! Define # of tracers in tracer modules (if enabled)
  ntracer_gen = 2 !user defined module (USE_GEN)
  ntracer_age = 4 !age calculation (USE_AGE). Must be =2*N where N is # of age tracers
  sed_class = 5 !SED3D (USE_SED)
  eco_class = 27 !EcoSim (USE_ECO): must be between [25,60]

! Global output controls
  nspool = 36 !output step spool
  ihfskip = 864 !stack spool; every ihfskip steps will be put into 1_*, 2_*, etc...
/

&OPT
!+++++++++++++++++++++++++++++++++++++++++++++++++++++++++++++++++++++++
! Optional parameters. The values shown below are default unless otherwise noted
!+++++++++++++++++++++++++++++++++++++++++++++++++++++++++++++++++++++++
!-----------------------------------------------------------------------
! Optional offline partitioning using NO_PARMETIS. If on, need partition.prop (like global_to_local.prop).
!-----------------------------------------------------------------------


!-----------------------------------------------------------------------
! 2nd pre-proc flag. If ipre2/=0, code will output some diagnotic outputs and stop.
! These outputs are: drag coefficients (Cdp)
!-----------------------------------------------------------------------
  ipre2 = 0

!-----------------------------------------------------------------------
! Option to only solve tracer transport (and bypass most b-tropic solver)
! Usage: turn the flag on ('1' or '2') and turn on your tracer modules and make sure
! (1) your inputs are consistent with the original hydro-only run (with additional tracers
! of course); (2) hydro-only run results are in hydro_out/schout*.nc, which must
! have 'hvel_side' (not normal hvel), 'elev', 'diffusivity', 'temp_elem', 'salt_elem' (for
! new scribe outputs, use corresponding files/var names); (3) dt above is 
! multiple of _output_ step used in the original hydro-only run 
! (as found in in hydro_out/schout*.nc); e.g. dt = 1 hour. (4). When itransport_only=2,
! additional variables ('totalSuspendedLoad','sedBedStress') are needed.
! Hotstart should work also, but you'd probably not use an aggressively large dt especially
! when air-sea exchange is involved.
!-----------------------------------------------------------------------
  itransport_only = 0

!-----------------------------------------------------------------------
! Option to add self-attracting and loading tide (SAL) into tidal potential 
! (usually for basin-scale applications). 
! If iloadtide=0, no SAL.
! If iloadtide=1, needs inputs: loadtide_[FREQ].gr3, 
! where [FREQ] are freq names (shared with tidal potential, in upper cases) 
! and the _two_ 'depths' inside are amplitude (m) and phases (degrees behind GMT), 
! interpolated from global tide model (e.g. FES2014). In this option, SAL is 
! lumped into tidal potential so it shares some parameters with tidal potential 
! in bctides.in (cut-off depth, frequencies).
! If iloadtide=2 or 3, use a simple scaling for gravity approach (in this option,
! SAL is applied everywhere and does not share parameters with tidal potential).
! For iloadtide=2, a const scaling (1-loadtide_coef) is used; for iloadtide=3, the scaling is 
! dependent on depth (Stepanov & Hughes 2004) with max of loadtide_coef.
!-----------------------------------------------------------------------
  iloadtide = 0
  loadtide_coef = 0.1 !only used if iloadtide=2,3 (for '3', the default should be 0.12)

! Starting time
  start_year = 2000 !int
  start_month = 1 !int
  start_day = 1 !int
  start_hour = 0 !double
  utc_start = 8 !double

!-----------------------------------------------------------------------
! Coordinate option: 1: Cartesian; 2: lon/lat (hgrid.gr3=hgrid.ll in this case,
! and orientation of element is outward of earth)
! Notes for lon/lat: make sure hgrid.ll and grid in sflux are consistent in 
! longitude range!
!-----------------------------------------------------------------------
  ics = 1 !Coordinate option

!-----------------------------------------------------------------------
! Hotstart option. 0: cold start; 1: hotstart with time reset to 0; 2: 
! continue from the step in hotstart.nc
!-----------------------------------------------------------------------
  ihot = 0

!-----------------------------------------------------------------------
! Equation of State type used
! ieos_type=0: UNESCO 1980 (nonlinear); =1: linear function of T ONLY, i.e. 
! \rho=eos_b+eos_a*T, where eos_a<=0 in kg/m^3/C
!-----------------------------------------------------------------------
  ieos_type = 0
  ieos_pres = 0 !used only if ieos_type=0. 0: without pressure effects 
  eos_a = -0.1 !needed if ieos_type=1; should be <=0 
  eos_b = 1001. !needed if ieos_type=1

!-----------------------------------------------------------------------
! Main ramp option
!-----------------------------------------------------------------------
!  nramp = 1 !ramp-up option (1: on; 0: off)
  dramp = 1. !ramp-up period in days for b.c. etc (no ramp-up if <=0)

!  nrampbc = 0 !ramp-up flag for baroclinic force
  drampbc = 0. !ramp-up period in days for baroclinic force

!-----------------------------------------------------------------------
! Method for momentum advection. 0: ELM; 1: upwind (not quite working yet)
!-----------------------------------------------------------------------
  iupwind_mom = 0

!-----------------------------------------------------------------------
! Methods for computing velocity at nodes. 
! If indvel=0, conformal linear shape function is used; if indvel=1, averaging method is used.
! For indvel=0, a stabilization method is needed (see below). 
!-----------------------------------------------------------------------
  indvel = 0 
 
!-----------------------------------------------------------------------
! 2 stabilization methods, mostly for indvel=0.
! (1) Horizontal viscosity option. ihorcon=0: no viscosity is used; =1: Lapacian;
! =2: bi-harmonic. If ihorcon=1, horizontal viscosity _coefficient_ (<=1/8, related
! to diffusion number) is given in hvis_coef0, and the diffusion # 
! is problem dependent; [0.001-1/8] seems to work well.
! If ihorcon=2, diffusion number is given by hvis_coef0 (<=0.025).
! If indvel=1, no horizontal viscosity is needed. 
! (2) Shapiro filter (see below)
!
! For non-eddying regime applications (nearshore, estuary, river), an easiest option is: 
!  indvel=0, ishapiro=1 (shapiro0=0.5), ihorcon=inter_mom=0.
! For applications that include eddying regime, refer to the manual.
!-----------------------------------------------------------------------
  ihorcon = 0
  hvis_coef0 = 0.025 !const. diffusion # if ihorcon/=0; <=0.025 for ihorcon=2, <=0.125 for ihorcon=1
!  cdh = 0.01 !needed only if ihorcon/=0; land friction coefficient - not active yet

!-----------------------------------------------------------------------
! 2nd stabilization method via Shapiro filter. This should normally be used 
! if indvel=0. ishapiro=0: off; =1: constant filter strength in shapiro0; =-1:
! variable filter strength specified in shapiro.gr3; =2: variable filter strength specified
! as a Smagorinsky-like filter, with the coefficient specified in shapiro.gr3.
! To transition between eddying/non-eddying regimes, use
! indvel=0, ihorcon/=0, and ishapiro=-1 (requiring shapiro.gr3) or 2 (Smagorinsky-like filter).
!-----------------------------------------------------------------------
  ishapiro = 1 !options
  niter_shap = 1 !needed if ishapiro/=0: # of iterations with Shapiro filter
  !shapiro0: Shapiro filter strength, needed only if ishapiro=1 
  !If ishapiro=1, shapiro0 is the filter strength (max is 0.5).
  !If ishapiro=2, the coefficient in tanh() is specified in shapiro.gr3. Experiences so far suggest 100 to 1.e3
  !If ishapiro=-1, the filter strength is directly read in from shapiro.gr3
  shapiro0 = 0.5 !needed only if ishapiro=1

!-----------------------------------------------------------------------
! Implicitness factor (0.5<thetai<=1).
!-----------------------------------------------------------------------
  thetai = 0.6 

!-----------------------------------------------------------------------
! If WWM is used, set coupling/decoupling flag 'icou_elfe_wwm'. 
! No effects if USE_WWM is distabled in Makefile.
! Note that all these parameters must be present in this file (even when not used).
!       0: no elevation and no currents in wwm, no wave force in SCHISM (but wave turbulecne, WBL etc are still in SCHISM);
!       1: full coupled (elevation, vel, and wind are all passed to WWM); 
!       2: elevation and currents in wwm, no wave force in SCHISM;  
!       3: no elevation and no currents in wwm, wave force in SCHISM;
!       4: elevation but no currents in wwm, wave force in SCHISM;
!       5: elevation but no currents in wwm, no wave force in SCHISM;
!       6: no elevation but currents in wwm, wave force in SCHISM;
!       7: no elevation but currents in wwm, no wave force in SCHISM;
! If WWM is used and RADFLAG='VOR' in wwminput.nml, some parameters (fwvor_*)
! are added to take into account (1) or not (0) the different terms in vortex
! force expression.
! To get SCHISM-only result withno feedback from WWM, compile without WWM.
!-----------------------------------------------------------------------
  icou_elfe_wwm = 0 
  nstep_wwm = 1  !call WWM every this many time steps 
  iwbl = 0 !wave boundary layer formulation (used only if USE_WMM and 
           !icou_elfe_wwm/=0 and nchi=1. If icou_elfe_wwm=0, set iwbl=0): 
           !1-modified Grant-Madsen formulation; 2-Soulsby (1997)
  hmin_radstress = 1. !min. total water depth used only in radiation stress calculation [m]
!  nrampwafo = 0       !ramp-up option for the wave forces (1: on; 0: off)
  drampwafo = 0.      !ramp-up period in days for the wave forces (no ramp-up if <=0)
  turbinj = 0.15      !% of depth-induced wave breaking energy injected in turbulence 
                      !(default: 0.15 (15%), as proposed by Feddersen, 2012)
  turbinjds = 1.0     !% of wave energy dissipated through whitecapping injected in turbulence 
                      !(default: 1 (100%), as proposed by Paskyabi et al. 2012)
  alphaw = 0.5        !for itur=4 : scaling parameter for the surface roughness z0s = alphaw*Hm0. 
                      !If negative z0s = abs(alphaw) e.g. z0s=0.2 m (Feddersen and Trowbridge, 2005)
                         ! Vortex Force terms (off/on:0/1)
  fwvor_advxy_stokes = 1 !  --> Stokes drift advection (xy), Coriolis
  fwvor_advz_stokes = 1  !  --> Stokes drift advection (z) , Coriolis
  fwvor_gradpress = 1    !  --> Pressure term
  fwvor_breaking = 1     !  --> Wave breaking
  fwvor_streaming = 1    !  --> Wave streaming (works with iwbl /= 0)
  fwvor_wveg = 0         !  --> Wave dissipation by vegetation acceleration term
  fwvor_wveg_NL = 0      !  --> Non linear intrawave vegetation force (see Dean and Bender, 2006 or van Rooijen et al., 2016 for details) 
  cur_wwm = 0            ! Coupling current in WWM
                         ! 0: surface layer current
                         ! 1: depth-averaged current
                         ! 2: computed according to Kirby and Chen (1989)
  wafo_obcramp = 0       ! Ramp on wave forces at open boundary (1: on / 0: off)
                         !  --> this option requires the input file wafo_ramp.gr3
                         !      which defines the ramp value (between 0 and 1)
                         !      at nodes over the whole domain

!-----------------------------------------------------------------------
! Bed deformation option (0: off; 1: vertical deformation only; 2: 3D bed deformation). 
! If imm=1, bdef.gr3 is needed; if imm=2, user needs to update depth info etc
! in the code (not working for ics=2 yet).
!-----------------------------------------------------------------------
  imm = 0
  ibdef = 10 !needed if imm=1; # of steps used in deformation

!-----------------------------------------------------------------------
! Reference latitude for beta-plane approximation when ncor=1 (not used if ics=2)
!-----------------------------------------------------------------------
  slam0 = -124  !lon - not really used
  sfea0 = 45 !lat

!-----------------------------------------------------------------------
! Option to deal with under resolution near steep slopes in deeper depths
! 0: use h[12,_bcc below; /=0: use hw_* below
!-----------------------------------------------------------------------
  iunder_deep = 0 

!-----------------------------------------------------------------------
! Baroclinicity calculation in off/nearshore with iunder_deep=ibc=0. 
! The 'below-bottom' gradient
! is zeroed out if h>=h2_bcc (i.e. like Z) or uses const extrap
! (i.e. like terrain-following) if h<=h1_bcc(<h2_bcc) (and linear
! transition in between based on local depth)
!-----------------------------------------------------------------------
  h1_bcc = 50. ![m]
  h2_bcc = 100. ![m]; >h1_bcc

!-----------------------------------------------------------------------
! Hannah-Wright-like ratio & depth used to account for under-resolution
! in a b-clinic model. Used only if ibc=0 and iunder_deep/=0.
! The b-clinic force at prism centers is calculated with a reconstruction
! method in horizontal that has a stencil of an element and its adjacent elements.
! If the depths change is too much between the elem and its adjacent elem
! the under-resolution occurs (with steep bottom slope) and b-clinic force
! needs to be zeroed out below the (higher) bottom, specifically, if
! max(2 depths)>=hw_depth and abs(diff(2 depths))>=hw_ratio*max(2 depths).
!-----------------------------------------------------------------------
  hw_depth = 1.e6 !threshold depth in [m]
  hw_ratio = 0.5 !ratio

!-----------------------------------------------------------------------
! Hydraulic model option. If ihydraulics/=0, hydraulics.in 
! is required. This option cannot be used with non-hydrostatic model.
!-----------------------------------------------------------------------
  ihydraulics = 0

!-----------------------------------------------------------------------
! Point sources/sinks option (0: no; 1: ASCII inputs; -1: netcdf). 
! If =1, needs source_sink.in (list of elements),
! vsource,th, vsink.th, and msource.th (the source/sink values must be single precision). 
! If =-1, all info is in source.nc
! and each type of volume/mass source/sink can have its own time step and
! # of records.
! Source/sinks can be specified at an elem more
! than once, and the code will accumulate the volumes; for mass conc, 
! values are applied at _net_ source elem (no summation for conc).

! meth_sink: options to treat sinks @ dry elem: no speacial treatment if meth_sink=0;
! zero out sink if the elem is dry if meth_sink=1
! If USE_NWM_BMI is on with if_source/=0, some parts of the reading and some b.c. will be bypassed (but the inputs
! will still be needed).
!-----------------------------------------------------------------------
  if_source = 0
!  nramp_ss = 1 !needed if if_source=1; ramp-up flag for source/sinks
  dramp_ss = 2 !needed if if_source/=0; ramp-up period in days for source/sinks (no ramp-up if <=0)
  meth_sink = 1 !options to treat sinks @ dry elem

!----------------------------------------------------------------------
! Specify vertical level to inject source concentration for each tracer _module_.
! Code will extrapolate below bottom/above surface unless level 0 is specified. In
! the latter case, the incoming tracer mass will be distributed across all vertical layers - 
! this approach works best in shallow waters. 
! NOTE: AGE module has its own way of injecting age tracers, so make sure the age concentrations
!  are all -9999. in msource.th so as to not interfere!
!----------------------------------------------------------------------
  lev_tr_source(1) = -9 !T
  lev_tr_source(2) = -9 !S
  lev_tr_source(3) = -9 !GEN
  lev_tr_source(4) = -9 !AGE: set -9999. in msource's AGE section
  lev_tr_source(5) = -9 !SED3D
  lev_tr_source(6) = -9 !EcoSim
  lev_tr_source(7) = -9 !ICM
  lev_tr_source(8) = -9 !CoSINE
  lev_tr_source(9) = -9 !Feco
  lev_tr_source(10) = -9 !TIMOR
  lev_tr_source(11) = -9 !FABM
  lev_tr_source(12) = -9 !DVD

!----------------------------------------------------------------------
! Specify level #'s if age module is invoked (USE_AGE), for 1st half of tracers only
!----------------------------------------------------------------------
  level_age = 9, -999 !default: -999 (all levels)

!-----------------------------------------------------------------------
! Horizontal diffusivity option. if ihdif=1, horizontal diffusivity is given in hdif.gr3
!-----------------------------------------------------------------------
  ihdif = 0 

!-----------------------------------------------------------------------
! Bottom friction. 
!           nchi=0: drag coefficients specified in drag.gr3; nchi=-1: Manning's 
!           formulation (even for 3D prisms) with n specified in manning.gr3. 
!           nchi=1: bottom roughness (in meters) specified in rough.gr3 (and in this case, negative
!           or 0 depths in rough.gr3 indicate time-independent Cd, not roughness!).
!           Cd is calculated using the log law, when dzb>=dzb_min; when dzb<dzb_min,
!           Cd=Cdmax, where Cdmax=Cd(dzb=dzb_min).
!           If iwbl/=0, nchi must =1.
!-----------------------------------------------------------------------
  nchi = 0 
  dzb_min = 0.5 !needed if nchi=1; min. bottom boundary layer thickness [m].
!  dzb_decay = 0. !needed if nchi=1; a decay const. [-]. should =0
  hmin_man = 1. !needed if nchi=-1: min. depth in Manning's formulation [m]

!-----------------------------------------------------------------------
! Coriolis. If ncor=-1, specify "rlatitude" (in degrees); if ncor=0,
! specify Coriolis parameter in "coricoef"; if ncor=1, model uses
! lat/lon in hgrid.ll for beta-plane approximation if ics=1, and in this case,
! the latitude specified in CPP projection ('sfea0') is used. If ncor=1 and ics=2,
! Coriolis is calculated from local latitude, and 'sfea0' is not used.
!-----------------------------------------------------------------------
  ncor = 0 !should usually be 1 if ics=2
  rlatitude = 46 !if ncor=-1
  coricoef = 0 !if ncor=0

!-----------------------------------------------------------------------
! Elevation initial condition flag for cold start only. For hotstart, set this to 0
! (and elev will be read in from hotstart.nc).
! If ic_elev=1, elev.ic (in *.gr3 format) is needed
! to specify the initial elevations; otherwise elevation is initialized to 0 everywhere 
!-----------------------------------------------------------------------
  ic_elev = 0

!-----------------------------------------------------------------------
! Elevation boundary condition ramp-up flag. =0: ramp up from 0; =1: ramp up from
! elev. values read in from elev.ic or hotstart.nc - if neither is present, from 0.
! This flag is mainly used to start the simulation from non-zero elev.
! The ramp-up period is 'dramp' (so if dramp=0, full strength is applied).
!-----------------------------------------------------------------------
  nramp_elev = 0

!-----------------------------------------------------------------------
! Optional inverse barometric effects on the elev. b.c.
! If inv_atm_bnd=1, the elev.'s at boundary are corrected by the difference
! between the actual atmos. pressure and a reference pressure (prmsl_ref below)
!-----------------------------------------------------------------------
  inv_atm_bnd = 0 !0: off; 1: on
  prmsl_ref = 101325. !reference atmos. pressure on bnd [Pa]

!-----------------------------------------------------------------------
! Initial condition for T,S. This value only matters for ihot=0 (cold start).
! If flag_ic(1:2)=1, the initial T,S field is read in from temp.ic and salt.ic (horizontally varying).
! If flag_ic(1:2)=2, the initial T,S field is read in from ts.ic (vertical varying).
! If ihot=0 && flag_ic(1:2)=2 || ibcc_mean=1, ts.ic is used for removing mean density profile.
! flag_ic(1) must =flag_ic(2)
!-----------------------------------------------------------------------
  flag_ic(1) = 1 !T
  flag_ic(2) = 1 !S

! initial conditions for other tracers.
! 1: needs inputs [MOD]_hvar_[1,2,...].ic ('1...' is tracer id); format of each file is similar to salt.ic;
!    i.e. horizontally varying i.c. is used for each tracer.
! 2: needs [MOD]_vvar_[1,2,...].ic. Format of each file (for each tracer in tis MOD) is similar to ts.ic
!    (i.e. level #, z-coord., tracer value). Verically varying i.c. is used for each tracer.
! 0: model sets own i.c. (EcoSim; TIMOR)
  flag_ic(3) = 1 !GEN (user defined module)
!  flag_ic(4) = 1 !Age i.c. flag set inside code
  flag_ic(5) = 1 !SED3D
  flag_ic(6) = 1 !EcoSim
  flag_ic(7) = 1 !ICM
  flag_ic(8) = 1 !CoSINE
  flag_ic(9) = 1 !FIB
  flag_ic(10) = 1 !TIMOR
  flag_ic(11) = 1 !FABM
  flag_ic(12) = 0 !DVD (must=0)

!-----------------------------------------------------------------------
! Settling vel [m/s] for GEN module (positive downward)
!-----------------------------------------------------------------------
  gen_wsett = 0 !1.e-4

!-----------------------------------------------------------------------
! Mean T,S profile option. If ibcc_mean=1 (or ihot=0 and flag_ic(1)=2), mean profile
! is read in from ts.ic, and will be removed when calculating baroclinic force.
! No ts.ic is needed if ibcc_mean=0.
!-----------------------------------------------------------------------
  ibcc_mean = 0 

!-----------------------------------------------------------------------
! Max. horizontal velocity magnitude, used mainly to prevent problem in 
! bulk aerodynamic module
!-----------------------------------------------------------------------
  rmaxvel = 5.

!-----------------------------------------------------------------------
!  Following parameters control backtracking
!-----------------------------------------------------------------------
!-----------------------------------------------------------------------
!  min. vel for invoking btrack and for abnormal exit in quicksearch
!-----------------------------------------------------------------------
  velmin_btrack = 1.e-4
!-----------------------------------------------------------------------
! Nudging factors for starting side/node - add noise to avoid underflow
! The starting location is nudged to: old*(1-btrack_nudge)+btrack_nudge*centroid
! Suggested value: btrack_nudge=9.013e-3
!-----------------------------------------------------------------------
  btrack_nudge= 9.013e-3 

!-----------------------------------------------------------------------
! Behavior when trajectory hits open bnd. If ibtrack_openbnd=0, slide with
! tangential vel; otherwise, stop and exit btrack 
!-----------------------------------------------------------------------
!  ibtrack_openbnd = 1 !hardwired

!-----------------------------------------------------------------------
! Wetting and drying. 
! - if ihhat=1, \hat{H} is made non-negative to enhance robustness near 
! wetting and drying; if ihhat=0, no retriction is imposed for this quantity. 
! - inunfl=0 is used for normal cases and inunfl=1 is used for more accurate wetting
! and drying if grid resolution is sufficiently fine.
! - if shorewafo=1, we impose radiation stress R_s = g*grad(eta) (balance between radiation stress
! gradients and the barotropic gradients) at the numerical shoreline (boundary between
! dry and wet elements). This option ensures that the shallow depth in dry elements does not
! create unphysical and very high wave forces at the shoreline (advised for morphodynamics runs).
!-----------------------------------------------------------------------
  ihhat = 1 
  inunfl = 0
  h0 = 0.01     !min. water depth for wetting/drying [m]
  shorewafo = 0 !Matters only if USE_WWM

!-----------------------------------------------------------------------
! Solver options
! USE_PETSC controls the solver type. If it's diabled, the default JCG 
! solver is used. If it's enabled, use PetSc lib. Some of the parameters
! have different meanings under these 2 options. Also with PetSc one can
! use cmd line options to choose solver etc.
!-----------------------------------------------------------------------
  moitn0 = 50 !output spool for solver info; used only with JCG
  mxitn0 = 1500 !max. iteration allowed
  rtol0 = 1.e-12 !error tolerance

!-----------------------------------------------------------------------
! Advection (ELM) option. If nadv=1, backtracking is done using Euler method; 
! nadv=2, using 2nd order Runge-Kutta; if nadv=0, advection in momentum 
! is turned off/on in adv.gr3 (the depths=0,1, or 2 also control methods 
! in backtracking as above). dtb_max/min are the max/min steps allowed -
! actual step is calculated adaptively based on local gradient.
!-----------------------------------------------------------------------
  nadv = 1
  dtb_max = 30. !in sec
  dtb_min = 10.

!-----------------------------------------------------------------------
! If inter_mom=0, linear interpolation is used for velocity at foot of char. line.
! If inter_mom=1 or -1, Kriging is used, and the choice of covariance function is
! specified in 'kr_co'. If inter_mom=1, Kriging is applied to whole domain;
! if inter_mom=-1, the regions where Kriging is used is specified in krvel.gr3 
! (depth=0: no kriging; depth=1: with kriging). 
!-----------------------------------------------------------------------
  inter_mom = 0 
  kr_co = 1 !not used if inter_mom=0

!-----------------------------------------------------------------------
! Tracer transport method. TVD or WENO method requires tvd.prop.
! TVD or WENO method is used on an element/prism if the total depth (at all nodes of the elem.)>=h_tvd and the flag in
! tvd.prop = 1 for the elem; otherwise upwind is used for efficiency. 
! itr_met=3 (horizontal TVD) or 4 (horizontal WENO): implicit TVD in the vertical dimension. 
! Also if itr_met==3 and h_tvd>=1.e5, some parts of the code are bypassed for efficiency.
! Controls for WENO are not yet in place.
!-----------------------------------------------------------------------
  itr_met = 3 
  h_tvd = 5. !cut-off depth (m) 
  !If itr_met=3 or 4, need the following 2 tolerances of convergence. The convergence
  !is achieved when sqrt[\sum_i(T_i^s+1-T_i^s)^2]<=eps1_tvd_imp*sqrt[\sum_i(T_i^s)^2]+eps2_tvd_imp
  eps1_tvd_imp = 1.e-4 !suggested value is 1.e-4, but for large suspended load, need to use a smaller value (e.g. 1.e-9)
  eps2_tvd_imp = 1.e-14  

  !Optional hybridized ELM transport for efficiency
  ielm_transport = 0 !1: turn on 
  max_subcyc = 10 !used only if ielm_transport/=0. Max # of subcycling per time step in transport allowed

  !if itr_met = 4, the following parameters are needed
  !if itr_met=4 and ipre=1, diagnostic outputs are generated for weno accuracy and stencil quality, 
  !  see subroutine weno_diag in src/Hydro/misc_subs.F90 for details
  ip_weno = 2   !order of accuracy: 0- upwind; 1- linear polynomial, 2nd order; 2- quadratic polynomial, 3rd order
  courant_weno=0.5 !Courant number for weno transport
  nquad = 2  !number of quad points on each side, nquad= 1 or 2
  ntd_weno = 1 !order of temporal discretization: (1) Euler (default); (3): 3rd-order Runge-Kutta (only for benchmarking)
  epsilon1 = 1.e-15   !coefficient for 2nd order weno smoother (larger values are more prone to numerical dispersion)
  epsilon2 = 1.e-10  !1st coefficient for 3rd order weno smoother (larger values are more prone to numerical dispersion
                     !, 1.e-10 should be fairly safe, recommended values: 1.e-8 ~ 1.e-6 (from the real applications so far)
  i_prtnftl_weno = 0 !option for writing nonfatal errors on invalid temp. or salinity for density: (0) off; (1) on.

  !Inactive at the moment:
  epsilon3 = 1.e-25  !2nd coefficient for 3rd order weno smoother (inactive at the moment)
  !Elad filter has not been implemented yet; preliminary tests showed it might not be necessary
  ielad_weno = 0      !ielad, if ielad=1, use ELAD method to suppress dispersion (inactive at the moment)
  small_elad = 1.e-4  !small (inactive at the moment)

!-----------------------------------------------------------------------
! Atmos. option. Use nws=2 and USE_ATMOS for coupling with atmospheric model.
! If nws=0, no atmos. forcing is applied. If nws=1, atmos.
! variables are read in from wind.th. If nws=2, atmos. variables are
! read in from sflux_ files.
! If nws=4, ascii format is used for wind and atmos. pressure at each node (see source code).
! If nws=-1 (requires USE_PAHM), use Holland parametric wind model (barotropic only with wind and atmos. pressure).
!  In this case, the Holland model is called every step so wtiminc is not used. An extra 